Circuit: * C:\Users\Samir\Electronics Projects\DSP Board\Draft1.asc

Direct Newton iteration failed to find .op point.  (Use ".option noopiter" to skip.)
Starting Gmin stepping
Gmin = 10
Gmin = 1.07374
vernier = 0.5
vernier = 0.25
vernier = 0.125
Gmin = 1.02385
vernier = 0.0625
vernier = 0.03125
vernier = 0.015625
Gmin = 1.01955
vernier = 0.0078125
vernier = 0.00390625
Gmin = 1.0126
vernier = 0.00520833
vernier = 0.00260417
vernier = 0.00130208
Gmin = 1.00833
vernier = 0.00173611
vernier = 0.000868055
Gmin = 1.00614
vernier = 0.00115741
vernier = 0.000578703
vernier = 0.000771604
Gmin = 1.00481
vernier = 0.000578703
vernier = 0.000434027
Gmin = 1.00401
vernier = 0.000578703
vernier = 0.000434027
Gmin = 0
Gmin stepping failed

Starting source stepping with srcstepmethod=0
Source Step = 3.0303%
Source Step = 33.3333%
Source Step = 63.6364%
Source Step = 93.9394%
Source stepping succeeded in finding the operating point.


Date: Fri Oct 31 14:47:57 2025
Total elapsed time: 0.925 seconds.

tnom = 27
temp = 27
method = modified trap
totiter = 34700
traniter = 29177
tranpoints = 8058
accept = 5594
rejected = 2464
matrix size = 44
fillins = 65
solver = Normal
Matrix Compiler1: 3.71 KB object code size  2.0/1.0/[0.4]
Matrix Compiler2: 4.59 KB object code size  1.2/1.5/[1.1]

