Circuit: * C:\Users\Samir\Electronics Projects\DSP Board\Draft1.asc

Direct Newton iteration for .op point succeeded.

Date: Mon Aug 11 19:03:30 2025
Total elapsed time: 0.076 seconds.

tnom = 27
temp = 27
method = modified trap
totiter = 104
traniter = 98
tranpoints = 50
accept = 50
rejected = 0
matrix size = 10
fillins = 4
solver = Normal
Matrix Compiler1: 818 bytes object code size  0.3/0.2/[0.2]
Matrix Compiler2: 890 bytes object code size  0.2/0.3/[0.2]

